14
 generated by VMD
  C        -2.990196        0.097881        0.000091
  H        -2.634894       -0.911406        0.001002
  H        -2.632173        0.601251       -0.873601
  H        -4.060195        0.099327       -0.000736
  C        -2.476854        0.823942        1.257436
  H        -2.832157        1.833228        1.256526
  H        -2.834877        0.320572        2.131128
  C        -0.936856        0.821861        1.258628
  H        -0.578833        1.325231        0.384935
  H        -0.581553       -0.187426        1.259538
  C        -0.423514        1.547922        2.515972
  H        -0.781537        1.044552        3.389664
  H         0.646485        1.546476        2.516800
  H        -0.778816        2.557208        2.515062
