          84
  Built with Packmol                                             
  C            9.020312        3.529792        1.201802
  H            8.941405        3.404851        0.142055
  H            8.155234        3.114629        1.675279
  H            9.896281        3.027604        1.555903
  C            9.118207        5.029912        1.535955
  H            9.197115        5.154852        2.595701
  H            9.983285        5.445074        1.062479
  C            7.857468        5.752688        1.026316
  H            6.992390        5.337524        1.499792
  H            7.778560        5.627747       -0.033432
  C            7.955363        7.252807        1.360468
  H            8.820440        7.667969        0.886992
  H            7.079394        7.754995        1.006368
  H            8.034270        7.377747        2.420214
  C            1.765974        1.979949        0.995975
  H            2.742340        1.805032        1.397242
  H            1.853187        2.417209        0.023300
  H            1.238491        1.051804        0.923793
  C            0.994396        2.938202        1.922267
  H            0.018030        3.113118        1.521001
  H            0.907183        2.500942        2.894942
  C            1.753576        4.274036        2.026157
  H            1.840789        4.711296        1.053481
  H            2.729942        4.099121        2.427423
  C            0.981997        5.232290        2.952448
  H            0.894784        4.795030        3.925124
  H            1.509480        6.160435        3.024632
  H            0.005632        5.407206        2.551183
  C            3.423324        6.243336        8.244998
  H            4.288504        6.247758        7.615439
  H            3.718647        6.419244        9.258280
  H            2.749812        7.013203        7.931012
  C            2.722419        4.875762        8.144625
  H            1.857238        4.871340        8.774182
  H            2.427095        4.699854        7.131343
  C            3.691772        3.767729        8.596528
  H            3.987095        3.943638        9.609811
  H            4.556953        3.772151        7.966971
  C            2.990867        2.400156        8.496156
  H            2.695544        2.224248        7.482874
  H            3.664379        1.630288        8.810141
  H            2.125686        2.395733        9.125713
  C            7.374576        2.690844        8.238268
  H            7.809722        3.573101        8.659185
  H            7.956815        1.837751        8.517787
  H            6.375657        2.576351        8.604264
  C            7.347997        2.813652        6.703402
  H            6.912850        1.931396        6.282486
  H            6.765758        3.666745        6.423883
  C            8.785692        2.978436        6.176640
  H            9.367931        2.125343        6.456160
  H            9.220839        3.860693        6.597557
  C            8.759114        3.101245        4.641775
  H            8.176875        3.954337        4.362256
  H            9.758032        3.215738        4.275778
  H            8.323968        2.218989        4.220858
  C            3.510194        1.757629        4.990537
  H            3.026450        2.366750        4.255783
  H            4.054465        2.381250        5.668597
  H            2.774784        1.199448        5.531376
  C            4.481521        0.786762        4.293728
  H            4.965264        0.177640        5.028481
  H            3.937251        0.163141        3.615668
  C            5.539962        1.590123        3.515324
  H            6.084232        2.213745        4.193385
  H            5.056218        2.199246        2.780570
  C            6.511289        0.619257        2.818516
  H            5.967018       -0.004364        2.140456
  H            7.246699        1.177437        2.277677
  H            6.995032        0.010135        3.553269
  C            7.781788        9.296623        8.552742
  H            8.701401        9.841999        8.594897
  H            7.732163        8.616785        9.377519
  H            6.959532        9.979435        8.603377
  C            7.713088        8.507409        7.232127
  H            6.793474        7.962034        7.189971
  H            7.762713        9.187247        6.407350
  C            8.896520        7.524671        7.159248
  H            8.846895        6.844833        7.984026
  H            9.816134        8.070046        7.201404
  C            8.827820        6.735457        5.838634
  H            8.877445        7.415295        5.013857
  H            9.650076        6.052645        5.787998
  H            7.908208        6.190082        5.796478
